!PBE0 D3BJ def2-TZVP def2/J opt Freq

%scf
   MaxIter 500
end

%geom
   MaxIter 500
end


%pal
   nprocs 6
end

* xyz 0 1
C    0.138408    7.357913    4.126938
H    0.855711    7.165502    3.569272
C    0.301944    8.303633    5.119730
H    1.118970    8.736558    5.219424
C   -0.745487    8.605863    5.962979
C   -1.951772    7.922441    5.799937
H   -2.672909    8.099423    6.360719
C   -2.063358    6.980352    4.797696
C    0.290124    6.181664    0.654245
H    1.069378    6.245196    0.149542
C    1.110022    4.445425    2.141252
C    0.600100    3.694840    3.238203
C    1.436960    2.720077    3.810200
H    1.113930    2.186408    4.500793
C    2.720997    2.549448    3.362613
H    3.273268    1.914128    3.757238
C    3.195287    3.340876    2.303359
C    2.397171    4.279334    1.674037
H    2.717798    4.782145    0.960598
N   -1.023527    6.703534    3.937519
N    0.158527    5.365731    1.655968
N    4.554656    3.183861    1.862938
O   -0.611217    3.926368    3.657543
O    5.295289    2.402417    2.488417
O    4.954891    3.840963    0.896524
Fe  -1.474074    5.352027    2.596212
H   -0.650089    9.251167    6.625532
C   -3.238273    6.181664    4.538178
C   -0.884791    6.980352    0.394728
O   -2.336932    3.926368    1.534880
N   -3.106675    5.365731    3.536456
N   -1.924622    6.703534    1.254905
H   -4.017526    6.245196    5.042882
C   -0.996377    7.922441   -0.607514
C   -3.548249    3.694840    1.954221
C   -4.058171    4.445425    3.051172
C   -3.086557    7.357913    1.065485
C   -2.202662    8.605863   -0.770556
H   -0.275240    8.099423   -1.168295
C   -4.385109    2.720077    1.382223
C   -5.345320    4.279334    3.518386
H   -3.803860    7.165502    1.623152
C   -3.250093    8.303633    0.072694
H   -2.298060    9.251167   -1.433109
H   -4.062079    2.186408    0.691631
C   -5.669146    2.549448    1.829810
C   -6.143436    3.340876    2.889064
H   -5.665947    4.782145    4.231825
H   -4.067119    8.736558   -0.027001
H   -6.221417    1.914128    1.435186
N   -7.502804    3.183861    3.329486
O   -8.243437    2.402417    2.704006
O   -7.903040    3.840963    4.295900
*
