53
Coordinates from ORCA-job input E -2966.277200642906
  C           0.09948401088416      7.43046500167457      4.13461407851373
  H           0.87470484697977      7.25200280993805      3.39923093176789
  C           0.29811186474825      8.31184585197941      5.18472702728294
  H           1.24113999595726      8.83412261345331      5.27615753386648
  C          -0.72435179165883      8.49709432079067      6.10167156872441
  C          -1.90485781340158      7.79599702696845      5.93979307436193
  H          -2.72590450249054      7.90582888737900      6.63716356893893
  C          -2.03242567312268      6.92661475474655      4.86363551120963
  C           0.25431642641484      6.12777606987503      0.59433118483757
  H           1.12269699267555      6.15678186932775     -0.05721006282698
  C           1.08275181308699      4.49181159428078      2.15706190879444
  C           0.56130192219013      3.78931459872802      3.29309699243257
  C           1.41644189371495      2.84155449527909      3.91459936566645
  H           1.03798959484328      2.29573872525320      4.76947582595234
  C           2.68091752285554      2.63043512179282      3.44075100910771
  H           3.34247566323188      1.91267734804466      3.90720786638795
  C           3.15444540008337      3.34716815689398      2.32983749026176
  C           2.36491184870774      4.27205560381169      1.68303988020647
  H           2.76872978397072      4.80145271768652      0.82994563874730
  N          -1.03016162888944      6.75524867494135      3.96826107505013
  N           0.16102377304258      5.37827440245643      1.64038073915805
  N           4.49817936700947      3.11982257144611      1.85414022720152
  O          -0.62003111872879      4.03395579805407      3.70040585475990
  O           5.17621450145590      2.29509391730125      2.43765643022834
  O           4.88274428174830      3.76734014421042      0.89574152954621
  Fe         -1.47437061942553      5.41736784990920      2.59571845531013
  H          -0.60094618890190      9.17722461926461      6.93567480455518
  C          -3.20311057211845      6.12888462619973      4.59679430287033
  C          -0.91575971080904      6.92652717650518      0.32798574273066
  O          -2.32968581143620      4.03543487320517      1.49008654469100
  N          -3.10999907440613      5.37930469118215      3.55079376890678
  N          -1.91789661518923      6.75588840265907      1.22362795239480
  H          -4.07200357109854      6.15924603919891      5.24758278792273
  C          -1.04288248244856      7.79613015518732     -0.74805729985301
  C          -3.51084962282595      3.79069745701419      1.89783887664006
  C          -4.03197721649723      4.49312749836805      3.03406780041672
  C          -3.04694036439755      7.43223382053703      1.05776732147321
  C          -2.22281653020093      8.49828859975955     -0.90949258019754
  H          -0.22186518882500      7.90547753050986     -1.44553734445306
  C          -4.36582284467084      2.84228723436022      1.27709300121493
  C          -5.31331470143016      4.27186841212085      3.50962788721837
  H          -3.82205329025796      7.25449047312569      1.79343094668483
  C          -3.24512970179259      8.31387351002930      0.00778845827926
  H          -2.34589966941166      9.17858557873985     -1.74340906435960
  H          -3.98762646598931      2.29659772102936      0.42202182690354
  C          -5.62956158850389      2.62987422995355      1.75232159612878
  C          -6.10259831234047      3.34613406171350      2.86375145630444
  H          -5.71670922739837      4.80080259372325      4.36320497319217
  H          -4.18771017145405      8.83702769291041     -0.08326266713285
  H          -6.29084286126763      1.91133499230727      1.28666863204433
  N          -7.44548110193705      3.11725129585842      3.34111276704939
  O          -8.12344736725982      2.29210230413970      2.75808884415704
  O          -7.82949210301473      3.76402448417514      4.30021695872952
