!PBE0 D3BJ def2-TZVP def2/J opt Freq

%scf
   MaxIter 500
end

%geom
   MaxIter 500
end


%pal
   nprocs 6
end

* xyz 0 5
C    7.521580    8.678560    3.225534
C   13.292836    8.678560    2.232222
C    7.947578    7.859576    2.147081
C   12.866838    7.859576    3.310675
C    6.987337    7.026349    1.542362
C   13.827080    7.026349    3.915394
H    7.233554    6.477096    0.833945
H   13.580862    6.477096    4.623811
C    5.696191    7.017447    1.988806
C   15.118225    7.017447    3.468950
H    5.064362    6.477096    1.570742
H   15.750054    6.477096    3.887014
C    5.325072    7.808835    3.058527
C   15.489344    7.808835    2.399230
C    6.228617    8.631380    3.700359
C   14.585800    8.631380    1.757398
N    3.955510    7.764325    3.535535
N   16.858907    7.764325    1.922222
O    9.186534    7.888953    1.756197
O   11.627882    7.888953    3.701560
O    3.128603    7.175903    2.829301
O   17.685813    7.175903    2.628455
O    3.679628    8.306457    4.601980
O   17.134788    8.306457    0.855776
N    8.549912    9.486862    3.726884
N   12.264505    9.486862    1.730873
H    5.971815    9.141464    4.433881
H   14.842601    9.141464    1.023875
C    8.457323   10.322760    4.680572
C   12.357094   10.322760    0.777185
H    7.652483   10.458070    5.125925
C    9.654226   11.061626    5.051699
C   11.160190   11.061626    0.406057
H   13.161934   10.458070    0.331832
N   10.733794   10.825723    4.265782
C    9.696663   11.919779    6.117053
C   11.117754   11.919779   -0.659297
N   10.080623   10.825723    1.191974
C   11.861558   11.474679    4.577966
H    8.941379   12.055089    6.643181
C   10.878130   12.586538    6.400857
H   11.873037   12.055089   -1.185425
C    9.936287   12.586538   -0.943100
C    8.952859   11.474679    0.879790
H   12.616250   11.317113    4.057296
C   11.968193   12.353306    5.613848
H   10.926371   13.181192    7.113640
C    8.846224   12.353306   -0.156092
H    9.888045   13.181192   -1.655883
H    8.198167   11.317113    1.400460
H   12.773749   12.787724    5.783039
H    8.040667   12.787724   -0.325282
Fe   10.407208    9.252739    2.728878
*
